
 OpenBabel04291516553D

  5  4  0  0  0  0  0  0  0  0999 V2000
    0.9890   -0.1130    0.0000 O   0  0  0  0  0  0  0  0  0  0  0  0
    2.3120   -0.0540    0.0000 C   0  0  0  0  0  0  0  0  0  0  0  0
    2.9460   -1.1330   -0.0000 O   0  5  0  0  0  0  0  0  0  0  0  0
    2.6990    1.1390    0.0000 O   0  0  0  0  0  0  0  0  0  0  0  0
    0.9240    0.8640    0.0000 H   0  0  0  0  0  0  0  0  0  0  0  0
  1  2  1  0  0  0  0
  1  5  1  0  0  0  0
  2  4  2  0  0  0  0
  2  3  1  0  0  0  0
M  CHG  1   3  -1
M  END
