
 OpenBabel04291516553D

  5  4  0  0  0  0  0  0  0  0999 V2000
    1.2150    0.1820    0.1180 O   0  5  0  0  0  0  0  0  0  0  0  0
    2.7000   -0.0640    0.0270 S   0  0  1  0  0  0  0  0  0  0  0  0
    3.1950   -0.6150   -1.2850 O   0  0  0  0  0  0  0  0  0  0  0  0
    3.3860    1.4210    0.1920 O   0  0  0  0  0  0  0  0  0  0  0  0
    2.6740    2.0190    0.5100 H   0  0  0  0  0  0  0  0  0  0  0  0
  2  1  1  6  0  0  0
  2  4  1  0  0  0  0
  2  3  2  0  0  0  0
  4  5  1  0  0  0  0
M  CHG  1   1  -1
M  END
