
 OpenBabel04291516543D

  7  6  0  0  0  0  0  0  0  0999 V2000
    0.9550   -0.2100    0.1290 C   0  0  0  0  0  0  0  0  0  0  0  0
    0.5880   -1.2700    0.6100 O   0  0  0  0  0  0  0  0  0  0  0  0
    0.0910    1.0650    0.1070 C   0  0  0  0  0  0  0  0  0  0  0  0
    0.7080    2.0390   -0.4540 O   0  0  0  0  0  0  0  0  0  0  0  0
   -1.0730    1.0570    0.6060 O   0  5  0  0  0  0  0  0  0  0  0  0
    2.1510    0.0790   -0.4690 O   0  0  0  0  0  0  0  0  0  0  0  0
    2.0370    1.0450   -0.7170 H   0  0  0  0  0  0  0  0  0  0  0  0
  1  6  1  0  0  0  0
  1  3  1  0  0  0  0
  1  2  2  0  0  0  0
  3  5  1  0  0  0  0
  3  4  2  0  0  0  0
  6  7  1  0  0  0  0
M  CHG  1   5  -1
M  END
