
 OpenBabel04301519003D

  6  5  0  0  0  0  0  0  0  0999 V2000
    1.1660    0.0206    0.1454 C   0  5  0  0  0  0  0  0  0  0  0  0
    2.2904    0.0206   -0.1281 N   0  0  0  0  0  0  0  0  0  0  0  0
   -0.2556    0.0206    0.4916 C   0  0  0  0  0  0  0  0  0  0  0  0
   -0.8632    0.0206   -0.4367 H   0  0  0  0  0  0  0  0  0  0  0  0
   -0.4910    0.9264    1.0874 H   0  0  0  0  0  0  0  0  0  0  0  0
   -0.4910   -0.8852    1.0874 H   0  0  0  0  0  0  0  0  0  0  0  0
  1  2  2  0  0  0  0
  1  3  1  0  0  0  0
  3  4  1  0  0  0  0
  3  5  1  0  0  0  0
  3  6  1  0  0  0  0
M  CHG  1   1  -1
M  END
