
 OpenBabel04291516563D

  7  6  0  0  0  0  0  0  0  0999 V2000
    2.7120    0.0160    0.5570 C   0  0  0  0  0  0  0  0  0  0  0  0
    1.3590    0.3200   -0.0590 C   0  0  0  0  0  0  0  0  0  0  0  0
    3.2210    0.9660    0.8240 H   0  0  0  0  0  0  0  0  0  0  0  0
    3.3380   -0.5380   -0.1730 H   0  0  0  0  0  0  0  0  0  0  0  0
    2.5820   -0.6000    1.4710 H   0  0  0  0  0  0  0  0  0  0  0  0
    0.7300    0.8810    0.6630 H   0  0  0  0  0  0  0  0  0  0  0  0
    0.8470   -0.6260   -0.3360 H   0  0  0  0  0  0  0  0  0  0  0  0
  1  2  1  0  0  0  0
  1  3  1  0  0  0  0
  1  4  1  0  0  0  0
  1  5  1  0  0  0  0
  2  6  1  0  0  0  0
  2  7  1  0  0  0  0
M  END
