
 OpenBabel04301513503D

 21 20  0  0  0  0  0  0  0  0999 V2000
   -0.0010   -0.0230   -0.0040 Fe  0  0  0  0  0 15  0  0  0  0  0  0
   -1.2360   -0.2770    1.6540 C   0  0  0  0  0  0  0  0  0  0  0  0
   -0.6250    1.0130    1.6850 C   0  0  0  0  0  0  0  0  0  0  0  0
    0.7910    0.8310    1.7150 C   0  0  0  0  0  0  0  0  0  0  0  0
    1.0530   -0.5730    1.6990 C   0  0  0  0  0  0  0  0  0  0  0  0
   -0.2000   -1.2570    1.6620 C   0  0  0  0  0  0  0  0  0  0  0  0
   -1.1210   -0.3010   -1.7370 C   0  0  0  0  0  0  0  0  0  0  0  0
   -0.6570    1.0460   -1.6620 C   0  0  0  0  0  0  0  0  0  0  0  0
    0.7700    1.0220   -1.6290 C   0  0  0  0  0  0  0  0  0  0  0  0
    1.1870   -0.3420   -1.6820 C   0  0  0  0  0  0  0  0  0  0  0  0
    0.0190   -1.1600   -1.7450 C   0  0  0  0  0  0  0  0  0  0  0  0
   -2.2980   -0.4760    1.5950 H   0  0  0  0  0  0  0  0  0  0  0  0
   -1.1430    1.9630    1.6550 H   0  0  0  0  0  0  0  0  0  0  0  0
    1.5340    1.6180    1.7100 H   0  0  0  0  0  0  0  0  0  0  0  0
    2.0310   -1.0370    1.6890 H   0  0  0  0  0  0  0  0  0  0  0  0
   -0.3380   -2.3290    1.6160 H   0  0  0  0  0  0  0  0  0  0  0  0
   -2.1560   -0.6170   -1.7480 H   0  0  0  0  0  0  0  0  0  0  0  0
   -1.2790    1.9300   -1.6060 H   0  0  0  0  0  0  0  0  0  0  0  0
    1.4200    1.8830   -1.5400 H   0  0  0  0  0  0  0  0  0  0  0  0
    2.2100   -0.6950   -1.6450 H   0  0  0  0  0  0  0  0  0  0  0  0
    0.0010   -2.2420   -1.7700 H   0  0  0  0  0  0  0  0  0  0  0  0
  2 12  1  0  0  0  0
  2  6  2  0  0  0  0
  2  3  1  0  0  0  0
  3 13  1  0  0  0  0
  3  4  1  0  0  0  0
  4  5  2  0  0  0  0
  4 14  1  0  0  0  0
  5  6  1  0  0  0  0
  5 15  1  0  0  0  0
  6 16  1  0  0  0  0
  7 17  1  0  0  0  0
  7 11  1  0  0  0  0
  7  8  2  0  0  0  0
  8  9  1  0  0  0  0
  8 18  1  0  0  0  0
  9 10  2  0  0  0  0
  9 19  1  0  0  0  0
 10 11  1  0  0  0  0
 10 20  1  0  0  0  0
 11 21  1  0  0  0  0
M  END
