
 OpenBabel04291516553D

 20 18  0  0  0  0  0  0  0  0999 V2000
    0.0050    3.3250   -3.1340 C   0  0  0  0  0  0  0  0  0  0  0  0
    3.4500    0.0810   -1.2590 C   0  0  0  0  0  0  0  0  0  0  0  0
   -0.1910    0.0540   -1.5450 C   0  0  0  0  0  0  0  0  0  0  0  0
    3.5270    2.6640   -3.8390 C   0  0  0  0  0  0  0  0  0  0  0  0
    0.3770    2.2870   -3.7480 O   0  0  0  0  0  0  0  0  0  0  0  0
    3.2390    1.0820   -0.5000 O   0  0  0  0  0  0  0  0  0  0  0  0
    0.4390    3.6910   -1.9930 O   0  0  0  0  0  0  0  0  0  0  0  0
    2.8940   -0.1100   -2.3760 O   0  0  0  0  0  0  0  0  0  0  0  0
    3.1370    2.9440   -2.6710 O   0  0  0  0  0  0  0  0  0  0  0  0
    0.0440   -0.3730   -2.7230 O   0  0  0  0  0  0  0  0  0  0  0  0
    0.4180    1.0090   -0.9900 O   0  0  0  0  0  0  0  0  0  0  0  0
    3.0540    1.7310   -4.5640 O   0  0  0  0  0  0  0  0  0  0  0  0
    1.8800    2.5840   -0.9800 In  0  0  0  0  0  0  0  0  0  0  0  0
    1.5210    0.4830   -3.9110 In  0  0  0  0  0  0  0  0  0  0  0  0
    2.1030    4.0030    1.0990 C   0  0  0  0  0  0  0  0  0  0  0  0
    1.2670    3.0450    1.0680 O   0  0  0  0  0  0  0  0  0  0  0  0
    2.8210    4.2170    0.0640 O   0  0  0  0  0  0  0  0  0  0  0  0
    1.2660   -0.9850   -5.9410 C   0  0  0  0  0  0  0  0  0  0  0  0
    2.0770   -1.2970   -5.0100 O   0  0  0  0  0  0  0  0  0  0  0  0
    0.5900    0.0910   -5.8220 O   0  0  0  0  0  0  0  0  0  0  0  0
  1  5  1  0  0  0  0
  1  7  1  0  0  0  0
  2  6  1  0  0  0  0
  2  8  2  0  0  0  0
  3 10  1  0  0  0  0
  3 11  2  0  0  0  0
  4  9  1  0  0  0  0
  4 12  1  0  0  0  0
  5 14  1  0  0  0  0
  6 13  1  0  0  0  0
  7 13  1  0  0  0  0
  9 13  1  0  0  0  0
 10 14  1  0  0  0  0
 12 14  1  0  0  0  0
 15 16  4  0  0  0  0
 15 17  4  0  0  0  0
 18 19  4  0  0  0  0
 18 20  4  0  0  0  0
M  END
