226
  Mrv0541 04041223443D          

 26 33  0  0  0  0            999 V2000
    2.8391    2.8758    0.8918 C   0  0  0  0  0  0  0  0  0  0  0  0
    0.6738    3.2329    0.9158 C   0  0  1  0  0  0  0  0  0  0  0  0
    2.3552    1.7764    0.3343 C   0  0  0  0  0  0  0  0  0  0  0  0
    0.6002    0.3820   -0.6930 C   0  0  2  0  0  0  0  0  0  0  0  0
    0.9060    1.8814   -0.0369 C   0  0  2  0  0  0  0  0  0  0  0  0
   -0.7500    1.9130    2.6823 C   0  0  1  0  0  0  0  0  0  0  0  0
   -0.2848   -1.3269    0.5978 C   0  0  2  0  0  0  0  0  0  0  0  0
    0.1454   -1.8302   -0.7938 C   0  0  1  0  0  0  0  0  0  0  0  0
   -3.3462   -1.7654   -2.4030 C   0  0  0  0  0  0  0  0  0  0  0  0
   -1.8079    0.9841    1.7881 C   0  0  1  0  0  0  0  0  0  0  0  0
   -1.5873   -0.1166   -2.2034 C   0  0  0  0  0  0  0  0  0  0  0  0
   -1.7823    1.9621    0.6641 C   0  0  0  0  0  0  0  0  0  0  0  0
   -2.6273   -4.1403   -2.3519 C   0  0  0  0  0  0  0  0  0  0  0  0
   -1.4056   -3.8382   -1.4536 C   0  0  0  0  0  0  0  0  0  0  0  0
   -2.2253   -1.2933   -1.4561 C   0  0  1  0  0  0  0  0  0  0  0  0
   -0.2600    1.5579    0.8031 C   0  0  0  0  0  0  0  0  0  0  0  0
   -1.6456   -0.6224    1.1622 C   0  0  1  0  0  0  0  0  0  0  0  0
   -2.6664   -1.0318    0.0451 C   0  0  0  0  0  0  0  0  0  0  0  0
   -1.0861   -2.3228   -1.5448 C   0  0  1  0  0  0  0  0  0  0  0  0
   -3.8015   -3.1931   -2.1314 C   0  0  0  0  0  0  0  0  0  0  0  0
    0.2494    1.0559    2.2470 C   0  0  0  0  0  0  0  0  0  0  0  0
   -0.6064    0.7027   -1.4993 O   0  0  0  0  0  0  0  0  0  0  0  0
   -0.0023    3.2318    2.3304 O   0  0  0  0  0  0  0  0  0  0  0  0
    1.9246    3.9445    0.9751 O   0  0  0  0  0  0  0  0  0  0  0  0
    0.8442   -0.5096    0.4656 O   0  0  0  0  0  0  0  0  0  0  0  0
    0.9703   -0.7762   -1.4749 O   0  0  0  0  0  0  0  0  0  0  0  0
  1  3  2  0  0  0  0
  1 24  1  0  0  0  0
  2  5  1  0  0  0  0
  2 23  1  0  0  0  0
  2 24  1  0  0  0  0
  3  5  1  0  0  0  0
  4 22  1  0  0  0  0
  4  5  1  0  0  0  0
  4 25  1  0  0  0  0
  4 26  1  0  0  0  0
  5 16  1  0  0  0  0
  6 21  1  0  0  0  0
  6 10  1  0  0  0  0
  6 23  1  0  0  0  0
  7  8  1  0  0  0  0
  7 17  1  0  0  0  0
  7 25  1  0  0  0  0
  8 19  1  0  0  0  0
  8 26  1  0  0  0  0
  9 20  1  0  0  0  0
  9 15  1  0  0  0  0
 10 17  1  0  0  0  0
 10 12  1  0  0  0  0
 11 15  1  0  0  0  0
 11 22  1  0  0  0  0
 12 16  1  0  0  0  0
 13 20  1  0  0  0  0
 13 14  1  0  0  0  0
 14 19  1  0  0  0  0
 15 18  1  0  0  0  0
 15 19  1  0  0  0  0
 16 21  1  0  0  0  0
 17 18  1  0  0  0  0
M  END
